Geom Title=small area
Program Version=6.31
Viewing Rectangle= 221204.842236523 , 228258.78361151 , 2443079.17816382 , 2438499.72028866 

Storage Area=Baoli Basin     ,,
Storage Area Surface Line= 438 
224332.4360869252440491.11060247                
224403.0423709392440546.22290315                
224448.7414725052440585.68200519                
224458.845137563 2440615.1739197                
224500.9095377452440647.53581268                
224531.005213526 2440684.7462091                
224595.6787915452440762.92945471                
224607.4037135872440820.45416734                
224638.0484164552440889.13850605                
224696.6942214072440917.53829727                
224746.3734418022441003.28344079                
 224795.300766592441054.82015861                
  224878.72508592441118.94171085                
   224945.4459432441137.41514478                
225028.1513611722441156.11016487                
225071.4273498312441142.51255077                
225098.471277571 2441144.7468444                
225135.3063641532441152.27315122                
225163.7202883482441200.19835902                
225177.6043292362441230.18992503                
225206.6859043332441292.93371935                
225237.9246324312441324.33841438                
225268.9079486252441334.84019022                
225307.1773432932441363.28811289                
225307.1637325552441403.31269237                
225341.7769034552441431.88955311                
225403.1831488412441465.42750684                
225454.7602607912441514.94685186                
225486.8455838692441566.71337702                
225527.6397105172441578.50704887                
 225595.739999762441601.24580673                
225655.5289849482441604.14117379                
225719.2819420892441603.35635494                
225750.957691312 2441646.9195594                
225778.9281742122441727.54036305                
225775.637529165 2441786.7719739                
225826.642527394 2441808.1611667                
225800.3173670182441873.97406764                
225812.2021033462441926.66303997                
225831.3931452612441980.63784535                
225797.8088219112442043.00873158                
225830.1937051412442102.98073756                
225888.9662710042442159.35442318                
225882.969070405 2442221.7253094                
225872.1741093292442296.09059682                
225942.9410763882442327.27603993                
225999.3147620112442303.28723754                
226020.9046841652442281.69731539                
226047.2923667972442287.69451598                
226049.6912470362442320.07939921                
226085.6744506262442365.65812376                
226132.4526152922442340.46988125                
226085.6744506262442240.91635132                
226031.699645242 2442233.7197106                
225963.3315584222442248.11299204                
225947.7388368662442220.52586928                
225963.3315584222442156.95554294                
225944.1405165072442083.78969564                
225918.952273995 2442038.2109711                
225930.9466751912441957.84848308                
225923.750034473 2441897.8764771                
225894.6091555182441872.32874512                
225912.1992986172441826.25971446                
225897.3913959052441765.38278109                
225862.8396229122441737.41229819                
225856.2583328172441706.15117025                
225856.2583328172441645.27423688                
225831.5784949652441597.55988369                
225797.0267219712441538.32827285                
225750.9576913122441495.54988724                
225652.2383399012441523.52037014                
225616.0412443842441488.96859714                
225548.5830209192441459.35279172                
225528.7357467332441448.04229887                
225512.0125757482441422.26151848                
225541.3539469352441398.42165439                
225588.3958301372441381.75661152                
 225631.638118192441359.76451946                
225681.1839189952441355.32651546                
225707.0570327252441375.85379457                
225738.9423040122441440.40451308                
225791.689013138 2441509.9730045                
225820.4070036442441529.65102428                
225862.9190700952441525.43184447                
225903.7676109522441501.89067907                
225931.5024919282441473.15045913                
225956.2592738662441456.64593784                
225986.9760218272441453.43672536                
 226011.074355572441445.69411464                
226114.8477230582441309.02732404                
226129.095559639 2441293.2299135                
226147.901329228  2441284.945498                
226190.5653370232441305.54598027                
226218.2474399722441352.79094004                
226243.1960389652441396.82875818                
226290.9492863882441418.45405637                
226344.1039968562441402.30800526                
226385.1831995182441336.25675903                
  226381.07376422441277.03512564                
 226375.026287292441236.71861291                
226377.0421129272441204.46540272                
226393.1687180192441182.29132072                
226421.3902769292441188.33879763                
226451.6276614772441188.33879763                
226473.8017434782441178.25966945                
226500.0074767522441172.21219254                
226520.1657331172441184.30714636                
226534.2765125722441202.44957709                
226548.3872920282441224.62365909                
226574.5930253022441240.75026418                
226612.8937123952441260.90852055                
226614.9095380322441291.14590509                
226603.5419956552441386.13882178                
  226621.33115772441481.15785024                
226671.8304280962441522.30540389                
226683.0524881842441619.56325799                
226679.4629504732441680.95552521                
226705.5488865142441712.11372659                
226717.3399962612441752.68040833                
226734.7954525382441805.02294518                
226755.6384584742441846.31423626                
226794.763548874 2441866.0646077                
 226835.516150032441872.77963844                
226876.2649375262441896.88147956                
226911.2168503442441930.57390677                
226960.4674031192441959.93011898                
226996.1362979492442010.65277239                
227006.9863696572442056.30316046                
226962.7852002542442114.27190722                
226964.2344189232442156.29924862                
226981.6250429512442194.70354335                
 227010.609416332442221.51408873                
227050.4629297262442232.38322874                
227067.8535537542442260.64299279                
227071.4766004262442289.62736617                
227062.7812884122442327.30705156                
227063.5058977472442358.46525294                
227096.8379271332442389.62345433                
227148.2851898812442428.75235839                
227189.5879219462442448.31681042                
227227.9922166742442461.35977844                
227262.048855394 2442460.6351691                
227285.2363540982442441.79532641                
 227282.337916762442404.11564102                
227277.990260753 2442353.3929876                
227275.0918234152442310.64103687                
227279.4394794222442287.45353816                
227308.4238528012442274.41057014                
227338.8574448492442278.75822615                
227380.8847862492442281.65666349                
227422.9121276492442289.62736617                
 227470.011734392442317.88713021                
227482.3300930762442343.24845692                
227467.8379063862442380.20353298                
227437.4043143382442415.70939037                
227428.7090023242442448.31681042                
227435.9550956692442480.92423047                
227467.8379063862442522.22696254                
227506.2422011142442558.45742926                
227535.2265744932442581.64492796                
227558.4140731962442620.77383202                
227590.2968839132442651.93203341                
227632.3242253132442682.36562546                
227669.2793013712442717.14687351                
227701.8867214232442746.13124689                
227715.1311572372442767.61973658                
227730.106767045 2442792.4364614                
227743.7987531542442817.25318623                
227770.326976241 2442833.9402943                
227800.2781958552442845.92078214                
227825.522795244 2442850.1995278                
227851.1952691992442848.48802954                
227873.0168720612442847.63228041                
227899.5450951482442865.60301218                
227929.9241893282442845.06503301                
227915.8043286532442827.09430124                
227897.8335968842442809.12356947                
227884.1416107752442805.70057295                
 227856.329763992442807.41207121                
227837.0754085242442808.69569491                
227816.9653039262442795.85945793                
227788.7255825752442770.61485854                
227758.7743629612442744.51451002                
227739.5664068162442714.24843617                
227712.0312521062442678.01796945                
227683.7714880612442628.01992537                
227655.5117240162442596.86172399                
227642.4687559962442578.02188129                
227631.5996159792442566.42813194                
227638.8457093232442556.28360126                
227656.9609426852442552.66055458                
227691.0175814062442551.21133591                
227735.2187508092442535.99453989                
227770.7246081992442524.40079054                
227811.3027309292442517.87930653                
227826.0123004192442489.32969875                
227838.6929637732442457.08458337                
227870.5033135562442447.73712295                
227915.7189360282442404.69532848                
227898.9079994682442366.07365095                
227865.4310482152442386.86993886                
227842.6783151122442402.95626608                
227804.7812469192442401.21720368                
227783.7675762192442415.70939037                
227767.101561526 2442437.4476704                
227762.0292961852442466.43204378                
227737.3925788122442475.85196513                
227679.4238320542442485.27188648                
227642.4687559962442495.41641716                
227612.7597732822442503.38711984                
227587.3984465752442512.80704119                
227570.0078225482442512.08243185                
 227552.617198522442501.21329184                
227526.5312624792442475.12735579                
227517.1113411312442441.07071707                
227535.2265744932442410.63712503                
227555.5156358582442372.95743963                
227551.8925891862442328.03166089                
227542.4726678382442286.00431949                
227510.5898571212442256.29533678                
227461.3164223762442230.93401007                
227414.9414249692442217.16643272                
227365.6679902252442213.54338605                
227323.6406488252442203.39885536                
 227288.859400772442205.57268337                
227251.9043247112442211.36955804                
227227.9922166742442222.23869806                
227217.1230766562442255.57072745                
227209.8769833122442291.07658484                
227211.3262019812442322.23478622                
227204.0801086362442346.14689426                
227190.3125312812442367.16056496                
227163.5019859052442359.91447161                
 227143.212924542442349.76994093                
227125.8223005122442333.10392624                
 227143.212924542442277.30900748                
227134.5176125262442233.83244741                
227122.9238631742442201.22502736                
227085.9687871162442176.58830999                
227048.2891017232442142.53167127                
227050.4629297262442112.09807922                
227088.1426151192442085.28753384                
227106.2578484812442020.79730308                
 227107.707067152441959.20550964                
227101.9101924742441917.17816824                
227085.9687871162441870.80317084                
227075.8242564332441826.60200143                
227054.810585733 2441783.8500507                
227020.7539470132441740.37349063                
226972.2051216032441714.28755459                
 226934.525436212441698.34614923                
 226934.52543621 2441659.9418545                
226966.4082469272441630.95748113                
226999.0156669782441603.42232642                
227018.5801190092441570.81490636                
227034.5215243682441539.65670498                
227049.0137110572441511.39694094                
227059.8828510752441481.68795822                
227077.2734751022441461.39889686                
227126.5469098472441459.94967819                
227167.849641912 2441422.2699928                
 227164.226595242441362.85202737                
227154.8066738912441325.89695131                
227150.459017884 2441298.3617966                
227099.7363644712441307.05710861                
227104.8086298122441334.59226332                
227111.0885773782441367.68275626                
227107.6265550022441385.95901392                
227095.3887084642441393.36613157                
227064.9551164162441393.28561942                
227028.0000403572441398.35788476                
 227010.60941633 2441422.2699928                
 227004.087932322441452.70358484                
226994.6680109712441475.89108355                
226967.1328562612441520.81686229                
226928.3086071592441569.58719482                
226891.7734854752441568.64107836                
226870.0352054412441546.90279833                
226847.5723160722441546.90279833                
  226822.9355987  2441550.525845                
226788.8789599792441559.94576635                
226776.5606012932441546.90279833                
 226770.958625542441526.04609059                
  226761.60690882441483.02819359                
 226724.200041842441434.39926654                
226723.7284767072441350.76582849                
226723.7641224022441315.33581273                
226733.8432505842441262.92434618                
 226707.637517312441220.59200782                
226697.5583891272441180.27549509                
226669.3368302172441129.87985417                
226645.8901664992441067.21424534                
226605.5542077582441010.63500544                
226522.1037747082440995.17386022                
226487.1498330022441047.74089486                
226471.7859178412441095.61081835                
226438.7665984522441102.52495709                
226417.3586256562441104.97411364                
226389.1370667462441097.77747292                
226359.6657914042441094.89498546                
226339.7397607092441084.38252636                
226337.9232109332441055.94109814                
226327.1432869442441017.73214749                
226305.431814535 2440975.8820217                
226308.2936604242440971.09586869                
226313.3074470542440969.74366106                
226388.3093344852440977.34109625                
226439.4971463282440929.80955668                
226472.4035967992440836.57461368                
226516.2788640932440714.08949248                
226496.169366583 2440582.4636906                
226421.215784956 2440567.8386015                
 226412.075104272440662.90168064                
226386.4811983482440778.07425729                
226349.8550898732440871.97265082                
226297.2047691212440873.61797334                
 226259.36235108 2440870.3273283                
226214.9386429452440908.16974634                
226229.7465456562441001.95313018                
226230.165377177 2441069.9867889                
226240.988843595 2441100.8367838                
226265.3665816112441133.89567361                
226269.0995796522441153.04243648                
226290.3616105582441180.27549509                
226286.8827416682441210.00247096                
226266.3246331062441207.91846255                
226247.5188635192441202.82362023                
 226218.378123972441182.22447086                
226172.4872365062441142.85416248                
226117.9365273862441127.85374575                
226073.3518122952441145.28652321                
226059.3364348772441188.77931772                
226050.4202005972441213.95154463                
226020.6107017452441219.99529998                
225988.5224034122441200.58506083                
225947.1081173812441181.61829158                
225873.0012997092441172.50659044                
225815.9858424392441181.83905299                
225755.6076739672441212.74993503                
225684.7499826972441271.86993696                
225606.5939142742441283.86805957                
225561.5509196032441316.60940302                
225519.2185812372441342.81513629                
225464.7050629372441356.27128893                
225428.5064275952441334.75183374                
225411.6042191042441240.26019205                
225378.1107866832441135.18509573                
225353.9019035312441065.42959773                
 225266.048179382441017.34868587                
225158.3865090552440997.01315588                
225059.0264126642440993.51464963                
224995.1039157512440975.93487045                
224922.7161827752440952.30486895                
224871.781540214  2440948.287154                
224794.6132917272440900.17683955                
 224769.478809752440865.24738709                
224737.216992859 2440841.8525197                
224710.1679162972440811.13577174                
224691.371100381 2440782.7113184                
224680.5815070862440732.94274264                
224648.734420375 2440673.5980943                
224630.4300217482440604.22773259                
224609.6948843252440583.62039329                
224590.9685958522440550.73110246                
224579.5071227332440525.97432052                
224560.8719969452440451.73269408                
224576.9371782242440368.21597883                
 224598.313134882440287.28714609                
224597.723444194 2440213.4839438                
224575.4862338982440163.28252467                
 224551.919429832440114.11680394                
224493.2227630882440057.87337899                
224419.9013044042440044.00939921                
224355.5822298382440009.00859551                
224319.8373988052439951.63267011                
224288.5745658012439882.62139381                
224284.3594342332439790.15127432                
224311.1435859862439652.88249658                
224252.5532540262439557.46395596                
224171.7755070862439409.45585047                
224100.5112572412439294.44771385                
224054.7000858282439189.73071342                
 223985.718170632439058.99324985                
 223909.183894622438994.83069999                
223729.6719742852438925.89887725                
223613.5945765372438805.77217071                
223253.4208961172438797.23073612                
222897.3968155162438707.87746481                
222398.6943665892438726.68560182                
222094.4164065632438796.44458188                
221900.960699909 2438950.2252089                
221710.7882872632439106.04396149                
221535.2939996362439384.73551647                
221555.2154508272439559.04821439                
221669.9235049262439557.27070609                
 221827.575786792439541.47735419                
221894.5136225982439505.53392627                
221909.9595016872439427.38898574                
 221982.28298856 2439373.7986993                
222117.2682068232439359.24146988                
222270.1153018872439360.45038573                
 222407.089410742439364.53500785                
222495.7561717562439363.21162336                
222638.6816969762439352.62454742                
222714.8893410242439332.14601199                
222834.5426019062439308.95285916                
222939.4192508232439312.57722753                
223048.8029669032439340.28496189                
223129.6573437942439353.94793191                
223198.3598689092439325.75163569                
223231.5579497382439256.01747945                
 223289.786867422439203.08209973                
223321.5480952462439142.20641307                
223378.4536284362439167.35071843                
  223494.94690812439175.80758582                
223650.9870752572439238.97279194                
223741.0609794552439277.19163133                
223820.7720855762439287.73266109                
223914.5166167122439347.75965612                
224020.1374451882439452.20454177                
224094.529275587 2439555.0545334                
224154.7936170322439632.48871016                
224101.8924004152439776.75919844                
224096.8703719612439850.41561576                
224123.6545237142439915.70198566                
224163.2986603312439957.29341077                
224187.0991281142440036.70276707                
224187.3409800052440076.04009999                
224217.0733657672440106.91057472                
224222.7035022342440137.84091548                
224256.8423531912440170.21840889                
224278.5814837892440216.50956703                
224286.7030393562440255.04583338                
224278.3102213612440300.43347434                
224281.4802485822440324.37756388                
224272.7590196982440380.00019504                
224289.8223505372440443.95241209                
224332.4360869252440491.11060247                
Storage Area Type= 1 
Storage Area Area=
Storage Area Min Elev=
Storage Area Is2D=-1
Storage Area Point Generation Data=,,10,10
Storage Area 2D Points= 23878 
227900.2939996362442860.60301218227890.2939996362442850.60301218
227900.2939996362442850.60301218227910.2939996362442850.60301218
227800.2939996362442840.60301218227810.2939996362442840.60301218
227820.2939996362442840.60301218227830.2939996362442840.60301218
227840.2939996362442840.60301218227850.2939996362442840.60301218
227860.2939996362442840.60301218227870.2939996362442840.60301218
227880.2939996362442840.60301218227890.2939996362442840.60301218
227900.2939996362442840.60301218227910.2939996362442840.60301218
227920.2939996362442840.60301218227770.2939996362442830.60301218
227780.2939996362442830.60301218227790.2939996362442830.60301218
227800.2939996362442830.60301218227810.2939996362442830.60301218
227820.2939996362442830.60301218227830.2939996362442830.60301218
227840.2939996362442830.60301218227850.2939996362442830.60301218
227860.2939996362442830.60301218227870.2939996362442830.60301218
227880.2939996362442830.60301218227890.2939996362442830.60301218
227900.2939996362442830.60301218227910.2939996362442830.60301218
227760.2939996362442820.60301218227770.2939996362442820.60301218
227780.2939996362442820.60301218227790.2939996362442820.60301218
227800.2939996362442820.60301218227810.2939996362442820.60301218
227820.2939996362442820.60301218227830.2939996362442820.60301218
227840.2939996362442820.60301218227850.2939996362442820.60301218
227860.2939996362442820.60301218227870.2939996362442820.60301218
227880.2939996362442820.60301218227890.2939996362442820.60301218
227900.2939996362442820.60301218227750.2939996362442810.60301218
227760.2939996362442810.60301218227770.2939996362442810.60301218
227780.2939996362442810.60301218227790.2939996362442810.60301218
227800.2939996362442810.60301218227810.2939996362442810.60301218
227820.2939996362442810.60301218227830.2939996362442810.60301218
227850.2939996362442810.60301218227860.2939996362442810.60301218
227870.2939996362442810.60301218227880.2939996362442810.60301218
227890.2939996362442810.60301218227740.2939996362442800.60301218
227750.2939996362442800.60301218227760.2939996362442800.60301218
227770.2939996362442800.60301218227780.2939996362442800.60301218
227790.2939996362442800.60301218227800.2939996362442800.60301218
227810.2939996362442800.60301218227740.2939996362442790.60301218
227750.2939996362442790.60301218227760.2939996362442790.60301218
227770.2939996362442790.60301218227780.2939996362442790.60301218
227790.2939996362442790.60301218227800.2939996362442790.60301218
227730.2939996362442780.60301218227740.2939996362442780.60301218
227750.2939996362442780.60301218227760.2939996362442780.60301218
227770.2939996362442780.60301218227780.2939996362442780.60301218
227790.2939996362442780.60301218227720.2939996362442770.60301218
227730.2939996362442770.60301218227740.2939996362442770.60301218
227750.2939996362442770.60301218227760.2939996362442770.60301218
227770.2939996362442770.60301218227780.2939996362442770.60301218
227720.2939996362442760.60301218227730.2939996362442760.60301218
227740.2939996362442760.60301218227750.2939996362442760.60301218
227760.2939996362442760.60301218227770.2939996362442760.60301218
227710.2939996362442750.60301218227720.2939996362442750.60301218
227730.2939996362442750.60301218227740.2939996362442750.60301218
227750.2939996362442750.60301218227760.2939996362442750.60301218
227700.2939996362442740.60301218227710.2939996362442740.60301218
227720.2939996362442740.60301218227730.2939996362442740.60301218
227740.2939996362442740.60301218227750.2939996362442740.60301218
227690.2939996362442730.60301218227700.2939996362442730.60301218
227710.2939996362442730.60301218227720.2939996362442730.60301218
227730.2939996362442730.60301218227740.2939996362442730.60301218
227680.2939996362442720.60301218227690.2939996362442720.60301218
227700.2939996362442720.60301218227710.2939996362442720.60301218
227720.2939996362442720.60301218227730.2939996362442720.60301218
227740.2939996362442720.60301218227670.2939996362442710.60301218
227680.2939996362442710.60301218227690.2939996362442710.60301218
227700.2939996362442710.60301218227710.2939996362442710.60301218
227720.2939996362442710.60301218227730.2939996362442710.60301218
227660.2939996362442700.60301218227670.2939996362442700.60301218
227680.2939996362442700.60301218227690.2939996362442700.60301218
227700.2939996362442700.60301218227710.2939996362442700.60301218
227720.2939996362442700.60301218227650.2939996362442690.60301218
227660.2939996362442690.60301218227670.2939996362442690.60301218
227680.2939996362442690.60301218227690.2939996362442690.60301218
227700.2939996362442690.60301218227710.2939996362442690.60301218
227640.2939996362442680.60301218227650.2939996362442680.60301218
227660.2939996362442680.60301218227670.2939996362442680.60301218
227680.2939996362442680.60301218227690.2939996362442680.60301218
227700.2939996362442680.60301218227710.2939996362442680.60301218
227630.2939996362442670.60301218227640.2939996362442670.60301218
227650.2939996362442670.60301218227660.2939996362442670.60301218
227670.2939996362442670.60301218227680.2939996362442670.60301218
227690.2939996362442670.60301218227700.2939996362442670.60301218
227610.2939996362442660.60301218227620.2939996362442660.60301218
227630.2939996362442660.60301218227640.2939996362442660.60301218
227650.2939996362442660.60301218227660.2939996362442660.60301218
227670.2939996362442660.60301218227680.2939996362442660.60301218
227690.2939996362442660.60301218227600.2939996362442650.60301218
227610.2939996362442650.60301218227620.2939996362442650.60301218
227630.2939996362442650.60301218227640.2939996362442650.60301218
227650.2939996362442650.60301218227660.2939996362442650.60301218
227670.2939996362442650.60301218227680.2939996362442650.60301218
227690.2939996362442650.60301218227590.2939996362442640.60301218
227600.2939996362442640.60301218227610.2939996362442640.60301218
227620.2939996362442640.60301218227630.2939996362442640.60301218
227640.2939996362442640.60301218227650.2939996362442640.60301218
227660.2939996362442640.60301218227670.2939996362442640.60301218
227680.2939996362442640.60301218227580.2939996362442630.60301218
227590.2939996362442630.60301218227600.2939996362442630.60301218
227610.2939996362442630.60301218227620.2939996362442630.60301218
227630.2939996362442630.60301218227640.2939996362442630.60301218
227650.2939996362442630.60301218227660.2939996362442630.60301218
227670.2939996362442630.60301218227680.2939996362442630.60301218
227570.2939996362442620.60301218227580.2939996362442620.60301218
227590.2939996362442620.60301218227600.2939996362442620.60301218
227610.2939996362442620.60301218227620.2939996362442620.60301218
227630.2939996362442620.60301218227640.2939996362442620.60301218
227650.2939996362442620.60301218227660.2939996362442620.60301218
227670.2939996362442620.60301218227560.2939996362442610.60301218
227570.2939996362442610.60301218227580.2939996362442610.60301218
227590.2939996362442610.60301218227600.2939996362442610.60301218
227610.2939996362442610.60301218227620.2939996362442610.60301218
227630.2939996362442610.60301218227640.2939996362442610.60301218
227650.2939996362442610.60301218227660.2939996362442610.60301218
227550.2939996362442600.60301218227560.2939996362442600.60301218
227570.2939996362442600.60301218227580.2939996362442600.60301218
227590.2939996362442600.60301218227600.2939996362442600.60301218
227610.2939996362442600.60301218227620.2939996362442600.60301218
227630.2939996362442600.60301218227640.2939996362442600.60301218
227650.2939996362442600.60301218227550.2939996362442590.60301218
227560.2939996362442590.60301218227570.2939996362442590.60301218